test/resources/V1_12/ground.xml
<?xml version="1.0" encoding="UTF-8"?>
<iidm:network xmlns:iidm="http://www.powsybl.org/schema/iidm/1_12" id="test" caseDate="2023-12-18T14:49:00+01:00" forecastDistance="0" sourceFormat="test" minimumValidationLevel="STEADY_STATE_HYPOTHESIS">
    <iidm:substation id="S" country="FR">
        <iidm:voltageLevel id="VL1" nominalV="400" topologyKind="NODE_BREAKER">
            <iidm:nodeBreakerTopology>
                <iidm:busbarSection id="BBS1" node="0"/>
                <iidm:busbarSection id="BBS2" node="1"/>
                <iidm:switch id="D_0_3" kind="DISCONNECTOR" retained="false" open="false" node1="0" node2="4"/>
                <iidm:switch id="D_1_3" kind="DISCONNECTOR" retained="false" open="false" node1="1" node2="4"/>
                <iidm:switch id="D_0_5" kind="DISCONNECTOR" retained="false" open="false" node1="0" node2="5"/>
                <iidm:switch id="D_1_5" kind="DISCONNECTOR" retained="false" open="false" node1="1" node2="5"/>
                <iidm:switch id="BR_LOAD" kind="BREAKER" retained="false" open="false" node1="2" node2="4"/>
                <iidm:switch id="BR_VL1" kind="BREAKER" retained="false" open="true" node1="3" node2="5"/>
                <iidm:switch id="D_1_6" kind="DISCONNECTOR" retained="false" open="false" node1="1" node2="6"/>
            </iidm:nodeBreakerTopology>
            <iidm:load id="L" loadType="UNDEFINED" p0="1" q0="1" node="2"/>
            <iidm:ground id="GroundNB" name="GroundNB" node="6"/>
        </iidm:voltageLevel>
        <iidm:voltageLevel id="VL2" nominalV="220" topologyKind="BUS_BREAKER">
            <iidm:busBreakerTopology>
                <iidm:bus id="BUS1"/>
                <iidm:bus id="BUS2"/>
                <iidm:switch id="BR_VL2" kind="BREAKER" retained="true" open="false" bus1="BUS1" bus2="BUS2"/>
            </iidm:busBreakerTopology>
            <iidm:generator id="CB" energySource="HYDRO" minP="0" maxP="70" voltageRegulatorOn="false" targetP="0" targetV="0" targetQ="0" bus="BUS1" connectableBus="BUS1">
                <iidm:minMaxReactiveLimits minQ="-1.7976931348623157e+308" maxQ="1.7976931348623157e+308"/>
            </iidm:generator>
            <iidm:ground id="GroundBB" name="GroundBB" bus="BUS2" connectableBus="BUS2">
                <iidm:property name="propGround" value="valueGround"/>
            </iidm:ground>
        </iidm:voltageLevel>
        <iidm:twoWindingsTransformer id="TWT" r="2" x="14.744999999999999" g="0" b="3.1999999999999999e-05" ratedU1="225" ratedU2="225" node1="3" voltageLevelId1="VL1" bus2="BUS1" connectableBus2="BUS1" voltageLevelId2="VL2"/>
    </iidm:substation>
</iidm:network>
